SEAWAT dataset                                                                  
Translated by Visual MODFLOW                                                    
         4       100        92        75         1         1
day m   kg  
T T T F T F F F F F 
 0 0 0 0
         0       200           (10G11.4)         0 Cell column delta
         0       200           (10G11.4)         0 Cell row delta
       100         1           (10G11.4)         0 Htop/Water table elevation
      1.639      1.639      1.639      1.639      1.639      1.639      1.639      1.639      1.639      1.639
      1.639      1.639      1.639      1.639      1.639      1.639      1.639      1.639      1.639      1.639
      1.639      1.639      1.639      1.639      1.639      1.639      1.639      1.639      1.639      1.639
      1.639      1.639      1.639      1.639      1.639      1.639     0.3524      0.306     0.3736      1.639
      1.639      1.639      1.639      1.639      1.639      1.639      1.639      1.639      1.639      1.639
      1.639      1.639      1.639      1.639      1.639      1.639      1.639      1.639      1.639      1.639
      1.639      1.639      1.639      1.639      1.639      1.639      1.639      1.639      1.639      1.639
      1.639      1.639      1.639      1.639      1.639      1.639      1.639      1.639      1.639      1.639
      1.639      1.639      1.639      1.639      1.639      1.639      1.639      1.639      1.639      1.639
      1.639      1.639
      1.639      1.639      1.639      1.639      1.639      1.639      1.639      1.639      1.639      1.639
      1.639      1.639      1.639      1.639      1.639      1.639      1.639      1.639      1.639      1.639
      1.639      1.639      1.639      1.639      1.639      1.639      1.639      1.639      1.639      1.639
      1.639     0.7496     0.7166     0.6697     0.5736     0.4863     0.4487     0.4368     0.4876     0.5739
     0.7072      1.639      1.639      1.639      1.639      1.639      1.639      1.639      1.639      1.639
      1.639      1.639      1.639      1.639      1.639      1.639      1.639      1.639      1.639      1.639
      1.639      1.639      1.639      1.639      1.639      1.639      1.639      1.639      1.639      1.639
      1.639      1.639      1.639      1.639      1.639      1.639      1.639      1.639      1.639      1.639
      1.639      1.639      1.639      1.639      1.639      1.639      1.639      1.639      1.639      1.639
      1.639      1.639
      1.639      1.639      1.639      1.639      1.639      1.639      1.639      1.639      1.639      1.639
      1.639      1.639      1.639      1.639      1.639      1.639      1.639      1.639      1.639      1.639
      1.639      1.639      1.639     0.8529      0.988     0.9934     0.9664     0.9003     0.8355     0.7716
     0.7429     0.7272     0.6697     0.6063     0.5701     0.5404     0.5475     0.5647     0.6063     0.6508
     0.6994     0.7703      1.639      1.639      1.639      1.639      1.639      1.639      1.639      1.639
      1.639      1.639      1.639      1.639      1.639      1.639      1.639      1.639      1.639      1.639
      1.639      1.639      1.639      1.639      1.639      1.639      1.639      1.639      1.639      1.639
      1.639      1.639      1.639      1.639      1.639      1.639      1.639      1.639      1.639      1.639
      1.639      1.639      1.639      1.639      1.639      1.639      1.639      1.639      1.639      1.639
      1.639      1.639
      1.639      1.639      1.639      1.639      1.639      1.639      1.639      1.639      1.639      1.639
      1.639      1.639      1.639      1.639      1.639      1.639      1.639      1.639      1.639      1.639
      1.463       1.46      1.462      1.479      1.487      1.474      1.438      1.376      1.269      1.133
     0.9483     0.7463     0.6656     0.6034     0.6056     0.6131     0.6499     0.6884     0.7313       0.76
     0.7701     0.8193     0.8979     0.8994     0.8693      1.639      1.639      1.639      1.639      1.639
      1.639      1.639      1.639      1.639      1.639      0.767     0.6092     0.3917     0.3739     0.3982
     0.2902     0.1846     0.1405     0.1002    0.07145    -0.2142    -0.9129      -1.31     -1.431     -1.484
     -1.502     -1.505     -1.504     -1.527     -1.598     -2.194      -2.69     -2.831     -2.922     -2.925
     -2.937      -2.96     -3.025     -3.114     -3.257     -3.414     -3.611     -3.812     -4.041     -4.272
      1.639      1.639
      1.639      1.639      1.639      1.639      1.639      1.639      1.639      1.639      1.639      1.639
      1.639      1.639      1.639      1.639      1.639      1.639      1.639      1.206      1.516       1.78
      2.032      2.094      2.126      2.023      1.944      1.917       1.85      1.736      1.555      1.328
      1.044     0.7395     0.6608     0.6162      0.645     0.6773     0.7292     0.7774      0.817     0.8345
     0.8225     0.8517     0.9121     0.9155     0.8954      0.801     0.6933     0.5313     0.3838     0.3393
     0.3457     0.4918      0.626     0.7429     0.7851     0.7651     0.5961      0.359      0.454     0.6193
     0.3155     0.0194   -0.06525    -0.0709     0.1683    0.03374    -0.7016     -1.155     -1.351      -1.45
     -1.499     -1.508     -1.508      -1.53       -1.6     -2.189     -2.678     -2.818      -2.91     -2.917
     -2.933     -2.959     -3.015     -3.088     -3.211     -3.349      -3.53     -3.717     -3.934     -4.153
      1.639      1.639
      1.639      1.639      1.639      1.639      1.639      1.639      1.639      1.639      1.639      1.639
      1.639      1.639      1.639      1.639      1.639      1.639      1.094      1.477      1.953       2.28
      2.579      2.583      2.563       2.43      2.329      2.297      2.164      1.908      1.599      1.253
     0.9619     0.6902     0.6549     0.6546     0.6908     0.7279     0.7708     0.8096     0.8387     0.8521
     0.8448     0.8571     0.8843     0.8721     0.8437     0.7687     0.6854     0.5752     0.4779       0.47
     0.4817     0.5472     0.6099     0.6682     0.6885     0.6773     0.5761     0.4338     0.5646     0.7532
     0.3207   -0.09532    -0.1762    -0.1271     0.3247     0.3353    -0.3636    -0.8684     -1.196      -1.38
      -1.49     -1.512     -1.512     -1.534     -1.604      -2.19     -2.677     -2.817     -2.909     -2.916
     -2.931     -2.955     -3.002     -3.061     -3.169      -3.29     -3.452      -3.62     -3.819     -4.023
      1.639      1.639
      1.639      1.639      1.639      1.639      1.639      1.639      1.639      1.639      1.639      1.639
      1.639      1.639      1.639      1.639      1.639      1.078      1.277      1.768      2.354      2.699
      3.003      2.936      2.859      2.737      2.633      2.565      2.354       1.97      1.559      1.129
     0.8586     0.6469     0.6622     0.7107     0.7458     0.7793     0.8038     0.8244     0.8356     0.8381
     0.8292     0.8325     0.8448     0.8202     0.7804     0.7284     0.6743     0.6406      0.614      0.634
      0.644     0.6269     0.6172     0.6185     0.6162     0.6107     0.5642     0.4988     0.6491     0.8449
     0.3667    -0.0913     -0.166   -0.08971     0.4543     0.5451   -0.09267    -0.6261     -1.064      -1.32
     -1.484     -1.516     -1.515     -1.538     -1.607     -2.191     -2.676     -2.815     -2.907     -2.913
     -2.927     -2.948     -2.988     -3.037     -3.132     -3.239     -3.383     -3.532     -3.713       -3.9
      1.639      1.639
      1.639      1.639      1.639      1.639      1.639      1.639      1.639      1.639      1.639      1.639
      1.639      1.639      1.639      1.639      1.455      1.415      1.612      2.102      2.687      2.962
      3.187      3.021      2.879      2.851       2.78      2.615      2.305      1.818      1.355     0.9078
      0.715     0.6151     0.6955     0.8014      0.819     0.8322     0.8201     0.8054     0.7842     0.7624
     0.7398     0.7493     0.7829     0.7518     0.6943     0.6724     0.6568     0.7478     0.8322     0.8628
     0.8574     0.7536     0.6705     0.6176     0.5908     0.5857     0.5682     0.5449     0.6827     0.8545
     0.4923     0.1438    0.08016       0.13     0.5315     0.5763    0.04779    -0.4696    -0.9769      -1.28
      -1.48     -1.519     -1.518     -1.541      -1.61     -2.192     -2.676     -2.815     -2.905     -2.909
     -2.919     -2.935     -2.971      -3.02     -3.107     -3.205     -3.332     -3.463     -3.624      -3.79
      1.639      1.639
      1.639      1.639      1.639      1.639      1.639      1.639      1.639      1.639      1.639      1.639
      1.639      1.639      1.639      1.639      1.838       1.88      2.047      2.493      3.028      3.236
      3.392      3.172      2.993      3.007      2.928      2.646      2.254       1.73      1.262     0.8333
     0.6736     0.6124     0.7633     0.9432     0.9306     0.9113     0.8546     0.7989     0.7455     0.6972
     0.6556     0.6759     0.7429     0.7097     0.6355     0.6277     0.6318     0.8117     0.9747      1.008
     0.9928     0.8434     0.7263     0.6562     0.6229     0.6201     0.5912     0.5503      0.686     0.8591
     0.6396     0.4252     0.3774     0.3965     0.6232     0.5715    0.07224    -0.4388    -0.9607     -1.274
     -1.481     -1.522     -1.521     -1.543     -1.612     -2.191     -2.672     -2.811       -2.9     -2.902
      -2.91     -2.923     -2.959     -3.009     -3.092     -3.183     -3.296     -3.412     -3.553     -3.699
      1.639      1.639
      1.639      1.639      1.639      1.639      1.639      1.639      1.639      1.639      1.639      1.639
      1.639      1.639      1.639      1.639      2.538      2.646      2.718      3.016      3.386      3.534
      3.646      3.476      3.324      3.264      3.081       2.63      2.198      1.789      1.429      1.101
     0.8717     0.6776      0.912      1.205      1.132      1.052     0.9317     0.8218     0.7365     0.6564
     0.5833     0.6253     0.7542      0.729     0.6407     0.6098     0.5891     0.7742     0.9402     0.9583
     0.9452     0.8467      0.788     0.7875     0.7895     0.7936     0.6588     0.4603     0.6185     0.8521
     0.8378     0.8148     0.7942     0.7728     0.7488     0.4821    -0.1748    -0.7021     -1.111     -1.348
     -1.496     -1.525     -1.524     -1.546     -1.614     -2.185      -2.66     -2.798     -2.887      -2.89
       -2.9     -2.915     -2.957     -3.014     -3.097     -3.189     -3.293       -3.4     -3.523     -3.651
      1.639      1.639
      1.639      1.639      1.639      1.639      1.639      1.639      1.639      1.639      1.639      1.639
      1.639      1.639      1.639      1.639      3.022      3.229      3.295      3.494      3.735      3.823
      3.887      3.748       3.61      3.483      3.231      2.705      2.259      1.909      1.594      1.305
      1.025      0.749      1.117      1.571      1.415      1.253       1.06     0.8924     0.7865     0.6816
     0.5778     0.6208     0.7747     0.7384     0.6241     0.5716       0.53     0.7317      0.913     0.9355
     0.9365     0.8785     0.8609      0.902     0.9239     0.9299     0.7372     0.4535     0.6103     0.8603
     0.9894      1.101      1.103      1.052     0.8393      0.397    -0.4149     -0.959     -1.259     -1.421
     -1.512      -1.53     -1.529     -1.551     -1.618     -2.179     -2.647     -2.784     -2.873     -2.878
      -2.89     -2.909     -2.956     -3.018     -3.105     -3.198     -3.294     -3.391     -3.497     -3.606
      1.639      1.639
      1.639      1.639      1.639      1.639      1.639      1.639      1.639      1.639      1.639      1.639
      1.639      1.639      1.639      1.639      2.888      3.295      3.604       3.84      4.053      4.085
      4.091      3.929      3.766      3.597      3.375      3.038      2.649      2.198      1.757      1.323
      1.051     0.8379      1.481      2.236      1.932      1.629      1.335      1.099      1.005     0.8951
     0.7628     0.7479     0.8218     0.7197     0.5456     0.4756     0.4241     0.6745     0.9066     0.9901
      1.039     0.9918     0.9653     0.9686     0.9666     0.9602     0.8468     0.6844     0.7717     0.9119
      1.008      1.093      1.101      1.053     0.8295      0.324    -0.6352     -1.198     -1.399     -1.493
     -1.534     -1.541     -1.541     -1.562     -1.628     -2.176     -2.633     -2.767     -2.856     -2.865
     -2.882     -2.907     -2.958     -3.023     -3.115     -3.215     -3.303      -3.39     -3.478      -3.57
      1.639      1.639
      1.639      1.639      1.639      1.639      1.639      1.639      1.639      1.639      1.639      1.639
      1.639      1.639      1.639      2.195      2.732      3.262      3.787      4.082      4.302      4.324
      4.317       4.16       3.99       3.76      3.543       3.35      2.995      2.446      1.905      1.368
      1.148      1.045      1.842      2.756      2.334       1.92      1.548      1.258      1.167      1.052
     0.9064     0.8496     0.8604     0.7228     0.5243     0.4483     0.3941     0.6529     0.8984      1.028
      1.115      1.086      1.058      1.033      1.012     0.9945       0.95     0.8933     0.9233     0.9716
      1.034      1.089      1.081      1.013     0.7561     0.2009    -0.8341      -1.39      -1.51      -1.55
      -1.55      -1.55      -1.55     -1.571     -1.635     -2.171     -2.617     -2.749     -2.837     -2.847
     -2.866     -2.894     -2.948     -3.016      -3.11     -3.211     -3.293     -3.372     -3.448     -3.528
      1.639      1.639
      1.639      1.639      1.639      1.639      1.639      1.639      1.639      1.639      1.639      1.639
      1.639      1.639      2.617      2.534      2.497       2.88      3.524      3.951      4.307      4.479
      4.624      4.566      4.456      4.101      3.793      3.587      3.186      2.548      1.999      1.511
      1.503       1.67      2.193      2.756      2.328       1.91      1.542      1.246      1.125       1.01
     0.9027      0.861     0.8689      0.803     0.7068     0.6654     0.6338     0.7579     0.8836      1.007
      1.101      1.113      1.111       1.09      1.067      1.043      1.031      1.024       1.04       1.06
      1.088      1.102     0.9963     0.8263     0.4559    -0.1007    -0.9566     -1.417     -1.516      -1.55
      -1.55      -1.55      -1.55     -1.571     -1.634     -2.161       -2.6     -2.728      -2.81     -2.813
     -2.823      -2.84     -2.892     -2.965     -3.047     -3.132     -3.214     -3.296      -3.38     -3.466
      1.639      1.639
      1.639      1.639      1.639      1.639      1.639      1.639      1.639      1.639      1.639      1.639
      1.639      3.246      3.214      2.958      2.457      2.696      3.396      3.894      4.327      4.594
      4.832      4.843      4.777      4.354      3.984      3.731      3.291      2.625      2.123      1.734
      1.918      2.312      2.576      2.814      2.403      1.997      1.622      1.306      1.134      1.017
     0.9746     0.9407     0.9131     0.8901      0.869     0.8559     0.8443      0.857     0.8822     0.9921
      1.085       1.13      1.144      1.111      1.074      1.033      1.061      1.121      1.131       1.13
      1.126      1.105     0.9333     0.6991     0.2714    -0.2496    -0.9209     -1.314     -1.452     -1.517
     -1.545     -1.549     -1.548     -1.566     -1.625     -2.148     -2.582     -2.706     -2.785      -2.78
     -2.781     -2.788     -2.838      -2.91     -2.982     -3.054     -3.136      -3.22     -3.312     -3.405
      1.639      1.639
      1.639      1.639      1.639      1.639      1.639      1.639      1.639      1.639      1.639      3.776
      3.859      3.926      3.964      3.767      3.314      3.424      3.884       4.18      4.423       4.52
      4.595      4.527      4.431      4.202      3.901      3.444      3.005       2.59      2.383      2.319
      2.607      3.025      3.108      3.138      2.844      2.529      2.097      1.696       1.37      1.247
      1.392      1.333       1.12      1.008     0.9381      0.925      0.922     0.9285     0.9423      1.005
      1.064      1.109      1.088     0.9718     0.8603     0.7529     0.8593      1.064      1.106      1.114
      1.096      1.069     0.9716     0.8429     0.6157     0.2989     -0.162    -0.6173     -1.067     -1.337
     -1.515     -1.545     -1.538      -1.54     -1.585     -2.116     -2.558     -2.684     -2.761     -2.754
     -2.751     -2.751     -2.786     -2.841     -2.908     -2.979      -3.06     -3.144     -3.243     -3.346
      1.639      1.639
      1.639      1.639      1.639      1.639      1.639      1.639      1.639       4.31      4.229      4.206
      4.415      4.583      4.672      4.532       4.14      4.132      4.363      4.469      4.535      4.468
      4.382      4.221      4.073      3.989      3.743      3.141      2.736       2.57      2.645      2.884
      3.275      3.722      3.648      3.498      3.295       3.05      2.566       2.09      1.633      1.497
      1.788      1.694       1.31      1.116     0.9987     0.9846     0.9889     0.9911     0.9955      1.015
      1.041      1.086      1.036       0.85     0.6768     0.5146     0.6879      1.015       1.05      1.024
      1.004     0.9859     0.9777     0.9612     0.9194     0.7919     0.5265    0.03217    -0.6711     -1.117
     -1.432     -1.499     -1.506     -1.503     -1.543     -2.078     -2.524     -2.654     -2.735     -2.729
     -2.723     -2.718      -2.74     -2.778      -2.84     -2.909     -2.989     -3.071     -3.176     -3.287
      1.639      1.639
      1.639      1.639      1.639      1.639      1.639      1.639      4.982      4.744      4.798      4.868
      5.007      5.105      5.123      5.015      4.769      4.714      4.779      4.771      4.739      4.541
       4.32      3.975      3.647      3.398      3.111       2.74      2.572      2.646       2.92      3.332
      3.814      4.323      4.246      4.083       3.81      3.503      3.003      2.516       2.06      1.877
      2.054      1.865      1.398      1.156      1.007     0.9863     0.9891     0.9984      1.006      1.001
      1.009      1.054       1.01     0.8385     0.6795     0.5311      0.703      1.022     0.8057     0.4768
     0.5361     0.6191     0.7845     0.9218     0.9724     0.9418     0.7806      0.392     -0.204    -0.6499
      -1.02     -1.201     -1.337     -1.396     -1.488     -1.999     -2.431     -2.585      -2.69     -2.706
     -2.713     -2.709     -2.727     -2.756     -2.809     -2.869     -2.944     -3.022     -3.124     -3.231
      1.639      1.639
      1.639      1.639      1.639      1.639       6.12      5.666      5.396      5.167       5.34      5.494
      5.568        5.6      5.552      5.471      5.354      5.254      5.164       5.05      4.929      4.604
       4.25      3.728      3.233      2.858      2.561      2.433      2.493      2.782      3.227       3.78
      4.344      4.911      4.828      4.647      4.309      3.945      3.435      2.942      2.491      2.258
      2.315      2.033      1.494      1.209      1.028     0.9989     0.9967       1.01      1.018     0.9913
     0.9832      1.026     0.9874     0.8296      0.684     0.5485     0.7142      1.018     0.5804   -0.01379
     0.1142     0.2856     0.6048     0.8795      1.016      1.076      1.012     0.7235     0.2305    -0.2158
    -0.6383    -0.9295     -1.188     -1.304     -1.441     -1.927     -2.344     -2.521     -2.648     -2.685
     -2.703     -2.702     -2.715     -2.737     -2.782     -2.833     -2.903     -2.976     -3.074     -3.177
      1.639      1.639
      1.639      1.639      1.639      7.233      6.795      6.362      5.907      5.487      5.653      5.797
      5.852      5.862      5.784      5.679      5.545      5.404       5.26      5.125      4.993      4.572
       4.11      3.475      2.926      2.782      2.752      2.967        3.2      3.453      3.809      4.236
       4.79      5.391      5.261      5.023      4.664       4.29      3.828      3.377      2.952      2.654
      2.525      2.177      1.663      1.372      1.173       1.11      1.072      1.059      1.045      1.025
      1.016      1.038     0.9915     0.8437     0.7049     0.5736     0.6897     0.9191     0.5301    0.01027
     0.1119     0.2539     0.5479     0.8109     0.9776      1.069      1.038      0.799     0.3694   -0.07918
    -0.5374    -0.8916      -1.22     -1.337      -1.47     -1.924     -2.319     -2.498     -2.631     -2.678
     -2.703     -2.705     -2.721     -2.745     -2.785      -2.83     -2.893     -2.959     -3.049     -3.142
      1.639      1.639
      1.639      1.639       8.23       7.86      7.458      7.047       6.41      5.801      5.959      6.093
       6.13      6.119      6.014      5.886      5.732      5.546       5.34      5.185      5.046      4.535
      3.973      3.233       2.64      2.739      2.978      3.523      3.918      4.132      4.395      4.691
      5.228      5.854      5.672      5.371      4.998       4.62      4.209      3.802      3.404      3.045
      2.738      2.328      1.839      1.541      1.319      1.221      1.144      1.106      1.072      1.058
      1.048      1.049     0.9934      0.857     0.7267     0.6015     0.6681     0.8224     0.4907     0.0562
     0.1299     0.2398     0.5016     0.7461      0.937      1.057      1.062     0.8715     0.5034    0.05146
    -0.4432    -0.8595     -1.257     -1.373     -1.498     -1.923     -2.294     -2.477     -2.614      -2.67
     -2.702     -2.708     -2.727     -2.753     -2.789     -2.828     -2.885     -2.945     -3.025     -3.109
      1.639      1.639
      1.639      9.008       8.62      8.273      7.921      7.567      6.789      6.029      6.159      6.273
      6.319      6.314      6.212      6.065       5.87      5.562      5.182      5.013      4.911      4.415
      3.867      3.169      2.683      3.203      3.765      4.416      4.818       4.92       5.03      5.147
      5.543      6.042       5.72       5.28      4.997       4.71        4.4      4.075      3.714      3.358
      3.008      2.593      2.128      1.787      1.496      1.325      1.176      1.124      1.079      1.074
       1.06      1.023     0.9594     0.8557     0.7611     0.6741     0.6917     0.7574     0.6238     0.4481
     0.4676     0.5038     0.6218     0.7417     0.8677     0.9717       1.04     0.8968     0.5596    0.08724
    -0.4539    -0.9193     -1.366     -1.444     -1.528     -1.932     -2.287     -2.468     -2.605     -2.665
     -2.699     -2.708     -2.732     -2.765     -2.805     -2.847     -2.899     -2.954     -3.024     -3.098
      1.639      1.639
      9.885      9.397      9.011      8.684       8.38      8.082      7.167      6.261      6.364      6.457
      6.509      6.509      6.408      6.243      6.008      5.577      5.024      4.841      4.777      4.299
      3.768      3.114      2.736      3.667      4.541      5.295      5.703      5.696      5.658      5.598
      5.854      6.225      5.765      5.187      4.994      4.798      4.586      4.341      4.016      3.664
      3.275      2.856      2.414       2.03      1.669      1.427      1.207      1.141      1.086      1.088
       1.07     0.9969     0.9248     0.8544     0.7963     0.7483     0.7179     0.6956     0.7558     0.8335
     0.8004     0.7647     0.7409     0.7377     0.7979     0.8859      1.018     0.9228     0.6193     0.1282
    -0.4586    -0.9733      -1.47     -1.512     -1.555     -1.939     -2.278     -2.458     -2.596     -2.659
     -2.696     -2.709     -2.738     -2.777     -2.821     -2.866     -2.914     -2.963     -3.023     -3.086
      1.639      1.639
      10.57      9.956      9.448      8.998      8.639      8.307      7.524      6.752      6.793      6.817
      6.775      6.693      6.535      6.346      6.123      5.594      4.876      4.706      4.713      4.402
      4.049       3.54      3.262      4.079      4.835      5.458      5.826      5.887      5.889      5.852
      5.969      6.143       5.63      5.021      4.892      4.751      4.547      4.306      3.972      3.674
      3.421      3.038      2.558      2.125      1.711       1.43      1.174      1.103      1.042      1.035
      1.006      0.912     0.8558     0.8542     0.8727     0.9081      0.871     0.8008      0.837     0.8958
     0.8876     0.8717     0.8103     0.7534     0.7099     0.7599       0.96     0.9883     0.8598     0.4282
    -0.1578    -0.7389     -1.319     -1.366      -1.41     -1.809     -2.167      -2.38     -2.548     -2.633
     -2.683     -2.698     -2.732     -2.777     -2.831     -2.887     -2.936     -2.984     -3.035     -3.087
      1.639      1.639
      11.25      10.52      9.885      9.312      8.899      8.532      7.881      7.243      7.221      7.177
      7.041      6.878      6.663      6.449      6.237      5.611      4.727      4.571       4.65      4.506
       4.33      3.966      3.789      4.492      5.129      5.622      5.949      6.077       6.12      6.105
      6.084      6.062      5.494      4.854      4.789      4.705      4.509      4.271      3.928      3.683
      3.566       3.22      2.702      2.219      1.752      1.433      1.141      1.064     0.9978     0.9826
      0.941     0.8271     0.7868     0.8539     0.9491      1.068      1.024     0.9059     0.9182     0.9582
     0.9748     0.9786     0.8798     0.7691     0.6219     0.6338     0.9017      1.054        1.1     0.7282
     0.1431    -0.5046     -1.168      -1.22     -1.266     -1.679     -2.055     -2.303       -2.5     -2.606
     -2.669     -2.687     -2.726     -2.777     -2.841     -2.909     -2.958     -3.005     -3.046     -3.089
      1.639      1.639
      11.88      11.28      10.68      10.08      9.551      9.042      8.415      7.795      7.462      7.152
      6.939      6.706      6.431      6.058      5.577      5.191      4.866      4.919      5.093      5.083
      5.043      4.768       4.55      4.602      4.792      5.285      5.641      5.832      5.951       6.02
      6.108      6.203      5.879      5.497      5.357       5.16      4.638      4.081      3.438       3.11
      3.201      2.945      2.427      2.084      1.812      1.609      1.418       1.21      1.027      1.011
     0.9754      0.888     0.8355     0.8339     0.8597     0.9082     0.9174     0.9085     0.9385     0.9768
     0.9021     0.8249     0.7615     0.7198     0.7449     0.7988     0.8992     0.9928       1.08     0.7921
     0.3128    -0.2453     -0.823    -0.8817     -0.946     -1.437     -1.887     -2.189     -2.429      -2.56
     -2.635     -2.655       -2.7      -2.76     -2.839     -2.923     -2.977     -3.028     -3.063       -3.1
      1.639      1.639
      12.41      12.04      11.48      10.85      10.21      9.558      8.953      8.349      7.698      7.119
      6.831      6.527      6.192      5.656        4.9      4.763      5.011      5.276      5.548       5.67
      5.764      5.577      5.317      4.706      4.442      4.938      5.324      5.577      5.773      5.929
       6.13      6.348      6.275      6.157      5.939      5.625      4.771      3.889      2.939      2.526
      2.825       2.66      2.144      1.943      1.872      1.788      1.702       1.36      1.057       1.04
      1.012      0.952     0.8867     0.8135     0.7667     0.7419     0.8052      0.909     0.9576     0.9945
      0.826     0.6656     0.6394     0.6691     0.8722     0.9699     0.8979     0.9291      1.055      0.851
     0.4798    0.01439    -0.4743    -0.5399    -0.6224     -1.193     -1.717     -2.074     -2.358     -2.513
     -2.601     -2.622     -2.674     -2.743     -2.837     -2.937     -2.996      -3.05      -3.08     -3.111
      1.639      1.639
      12.24      12.04      11.68      11.23      10.69      10.12      9.708       9.28      8.409       7.62
      7.167      6.763      6.453      6.043      5.522      5.287       5.23      5.478      5.825      5.945
      6.026      5.761      5.493      5.216      5.107      5.366      5.567      5.697      5.831      5.967
      6.175       6.41      6.278      6.093      5.893      5.588      4.691      3.786      2.862       2.65
      3.382      3.482      3.105      2.753      2.411      2.085      1.761      1.459      1.187      1.115
      1.053      1.018     0.9784     0.9311     0.8922     0.8602     0.8775     0.9174     0.9654      1.015
     0.7035     0.4075     0.3584     0.4027     0.7365      0.816     0.4865     0.4797     0.7674     0.6144
     0.2371    -0.3107    -0.9006     -0.962     -1.026     -1.489     -1.908     -2.167     -2.373     -2.483
     -2.551     -2.578     -2.633     -2.704     -2.814     -2.936     -3.008     -3.073     -3.103     -3.133
      1.639      1.639
      11.92      11.99      11.84      11.57      11.15      10.69      10.48      10.24       9.15      8.156
      7.532      7.025      6.747      6.481      6.227      5.872      5.455       5.67       6.09        6.2
      6.258      5.904      5.632      5.752      5.836      5.844      5.845       5.84      5.904      6.014
      6.222      6.466      6.257      5.982      5.807      5.519      4.597      3.688      2.813      2.821
      3.999      4.375      4.146      3.624      2.982       2.39      1.806      1.555      1.323      1.193
      1.095      1.085      1.073      1.058      1.032     0.9969     0.9617     0.9263     0.9725      1.036
      0.578      0.143    0.06712     0.1224     0.5839     0.6412    0.04863   0.005478     0.4634     0.3589
   -0.03205    -0.6735     -1.377     -1.433     -1.476      -1.82     -2.122     -2.274     -2.394     -2.453